12
Lattice="27.4007197502 0.0 0.0 0.0 2.9965269995 0.0 0.0 0.0 2.9965269995" Properties=species:S:1:pos:R:3:force:R:3 config_type=surface_100 energy=-105.12874603 pbc="T T T"
V        0.01336551      -0.06446085      -0.20860385       0.39840975       0.10018470       0.04942785
V        1.38196657       1.47757464       1.34889075      -0.13489633      -0.24565896       0.05108372
V        2.89359176      -0.06825374      -0.09894382       0.02317952       0.11333938      -0.12842399
V        4.47679485       1.38241138       1.42422435      -0.23763481      -0.03434946       0.08653015
V        5.94145487      -0.15395613      -0.00911925       0.12683091       0.18652242       0.00492753
V        7.46315455       1.40515460       1.55408670       0.10350720      -0.12408483      -0.01939959
V        9.01298475      -0.04693178       0.08704980      -0.07778894       0.05155632      -0.12988446
V       10.52595266       1.50312407       1.54445905       0.11927031      -0.10165231       0.09884540
V       12.05472804       0.02453208       0.04944520      -0.36219833       0.22154908       0.05085061
V       13.55359582       1.62268633       1.58800912       0.44994811      -0.08449647       0.14467838
V       15.11876220       0.18299116       0.14750774      -0.20276989      -0.07294911      -0.38390728
V       16.44903188       1.72470829       1.56257424      -0.20585750      -0.00996076       0.17527168
