53
Lattice="8.96924313065 1.25181351975e-07 5.42077165329e-08 1.2518135246e-07 8.96924294695 -2.20964602923e-07 5.42077168957e-08 -2.20964603612e-07 8.96924288464" Properties=species:S:1:pos:R:3:force:R:3 config_type=vacancy energy=-471.98697293 pbc="T T T"
V        1.41301735       1.34801271       1.48129451       0.14829595       0.46004729      -0.28975717
V        0.01699984      -0.06149851       2.87331714      -0.51535368      -0.13780267       1.06709851
V        1.47382481       1.49077805       4.42210102      -0.19286088      -0.34778100       0.38823186
V        0.02114365      -0.02626108       6.14169198      -0.21392474       0.41403992      -0.93193273
V        1.49777110       1.62602531       7.47089016      -0.24304183      -0.71283265       0.20663291
V       -0.03107104       2.92124188       0.05980829       0.28060986       0.88840321      -0.30915680
V        1.54908711       4.52278855       1.67636041      -0.33689564      -0.28774989      -1.26855502
V       -0.07616218       2.96527510       2.96365504       0.46704783      -0.35997683       0.07709615
V        1.57456256       4.40561984       4.52225725      -0.56463046       0.57678716      -0.54147007
V       -0.02642447       2.96403821       5.89691555      -0.10815209      -0.12850223       0.50805648
V        1.40112776       4.59376848       7.50216723       0.79926237      -1.04959519      -0.31346454
V        0.07393745       5.96632902       0.00444684      -0.46040430      -0.19225416       0.45592811
V        1.50245855       7.52460273       1.45881106      -0.15057696      -0.40714122       0.00911311
V        0.02205711       5.98202652       3.01224377      -0.05756888      -0.26943616      -0.06254843
V        1.47081088       7.48491876       4.45979007       0.34880017      -0.17252294       0.29017682
V        0.10116600       5.92955719       6.07424006      -0.71395387       0.47971210      -0.55070967
V        1.50430588       7.49168630       7.54085192       0.02472108      -0.18790468      -0.10557662
V        2.90901139      -0.06514631       0.03589138       0.87167760       0.96903230      -0.46005701
V        4.43427517       1.51063190       1.48968590       0.30816640       0.02867324      -0.04459376
V        2.97820984      -0.00373050       3.01972604      -0.29918421       0.12741329      -0.37576425
V        4.36995376       1.52463407       4.51831069       0.81074454      -0.32917576      -0.39106473
V        2.96885800      -0.01469106       5.98718366      -0.29341095       0.29500289      -0.00132027
V        4.48062828       1.54697352       7.53140291      -0.14301887      -0.17177829      -0.36783257
V        2.97774818       3.04619324      -0.03432055      -0.30686078      -0.18600948       0.35541910
V        4.45702216       4.54536734       1.48190080       0.41092260      -0.43353180      -0.12520494
V        2.97926382       2.96791979       2.96663076       0.10779556      -0.01222984      -0.03255134
V        4.50506547       4.43195832       4.44981625      -0.16785562       0.36617525       0.15551803
V        2.93744519       2.97877743       5.90725761       0.35194754       0.15238579       0.75952518
V        4.51322336       4.45823008       7.42555294       0.05073173       0.58047811      -0.12829323
V        3.06885804       5.95246063      -0.09321314      -0.40046280       0.60773446       0.47343129
V        4.42507787       7.52514331       1.49744970       0.76713648      -0.03287136      -0.00703085
V        3.06997357       5.94210939       2.89668214      -0.41195699       0.37766194       0.89007771
V        4.40289175       7.50880765       4.45755460       0.72768205      -0.39213920       0.24823748
V        2.99653078       6.00592418       5.96037961       0.07528902      -0.01929814       0.08002642
V        4.45950717       7.58314823       7.43956871       0.42346786      -0.37038276       0.07841147
V        6.03863651       0.04218419      -0.01395698      -0.79520279      -0.24327959       0.16535969
V        7.49542141       1.44462436       1.41754907      -0.04337522      -0.00639632       0.22908084
V        6.04704748       0.02578812       3.09885079      -0.81522857      -0.14347037      -0.86660337
V        7.45406760       1.35334473       4.39784954       0.25961432       0.81225376       0.64760201
V        6.03066164      -0.01115602       5.95222830      -0.36220121       0.16648491       0.48459536
V        7.46508067       1.56586332       7.56374798      -0.11054904      -0.32956988      -0.37051767
V        5.97203651       3.11887184       0.01848400      -0.05319432      -0.80618528      -0.09474110
V        7.50984402       4.45325545       1.49862241      -0.06215440       0.42017684       0.03173760
V        6.02178991       3.03434541       3.00091927      -0.47843939      -0.55450681      -0.29348342
V        7.46862962       4.43396591       4.44435222       0.05495588       0.08784650       0.55398645
V        5.87095212       2.97874973       5.91784410       0.74971060       0.04291431       0.27439568
V        7.52478148       4.46310403       7.49687218      -0.31292105       0.10861977      -0.11077658
V        5.93958453       6.06576486      -0.01249477       0.46540440      -0.16182245      -0.06311649
V        7.46534405       7.41324775       1.50257308       0.30869539       0.37841808      -0.29652386
V        6.02916217       5.92810850       3.05918378      -0.29814961       0.24181978      -0.58649335
V        7.45960772       7.45541284       4.50424833       0.69354128      -0.10818763       0.11181117
V        6.04799924       5.99705299       5.90624629      -0.52643422      -0.15454701       0.49375633
V        7.54517543       7.47181963       7.55654309      -0.06825715       0.12680072      -0.04616588
